/*--------------------------------*- C++ -*----------------------------------*\ 
| =========                 |                                                 | 
| \\      /  F ield         | OpenFOAM: The Open Source CFD Toolbox           | 
|  \\    /   O peration     | Version:  3.0.x                                 | 
|   \\  /    A nd           | Web:      www.OpenFOAM.com                      | 
|    \\/     M anipulation  |                                                 | 
\*---------------------------------------------------------------------------*/ 
FoamFile                                                                        
{                                                                               
    version     2.0;                                                            
    format      ascii;                                                          
    class       dictionary;                                                     
    object      blockMeshDict;                                                  
}                                                                               
// * * * * * * * * * * * * * * * * * * * * * * * * * * * * * * * * * * * * * // 

convertToMeters 1.000000; 

vertices 
( 
    (-8.175212 0.500000 0.000000)
    (-0.175212 0.500000 8.000000)
    (0.000000 0.500000 8.000000)
    (16.000000 0.500000 8.000000)
    (-0.250000 0.500000 0.000000)
    (-0.175212 0.500000 0.010001)
    (-0.175212 0.500000 -0.010001)
    (0.000000 0.500000 -0.000000)
    (16.000000 0.500000 -0.000000)
    (-0.175212 0.500000 -8.000000)
    (0.000000 0.500000 -8.000000)
    (16.000000 0.500000 -8.000000)
    (-8.175212 -0.500000 0.000000)
    (-0.175212 -0.500000 8.000000)
    (0.000000 -0.500000 8.000000)
    (16.000000 -0.500000 8.000000)
    (-0.250000 -0.500000 0.000000)
    (-0.175212 -0.500000 0.010001)
    (-0.175212 -0.500000 -0.010001)
    (0.000000 -0.500000 -0.000000)
    (16.000000 -0.500000 -0.000000)
    (-0.175212 -0.500000 -8.000000)
    (0.000000 -0.500000 -8.000000)
    (16.000000 -0.500000 -8.000000)
); 

blocks 
( 
    hex (4 5 1 0 16 17 13 12)     (74 100 50) edgeGrading (1 1 1 1 1 1 1 1 1 1 1 1) 
    hex (5 7 2 1 17 19 14 13)     (176 100 50) simpleGrading (1 1 1) 
    hex (7 8 3 2 19 20 15 14)     (150 100 50) simpleGrading (1 1 1) 
    hex (16 18 21 12 4 6 9 0)     (74 100 50) edgeGrading (1 1 1 1 1 1 1 1 1 1 1 1) 
    hex (18 19 22 21 6 7 10 9)    (176 100 50) simpleGrading (1 1 1) 
    hex (19 20 23 22 7 8 11 10)   (150 100 50) simpleGrading (1 1 1) 
); 

edges 
( 
    spline 4 5 
        ( 
            (-0.249996 0.500000 0.000117) 
            (-0.249985 0.500000 0.000233) 
            (-0.249965 0.500000 0.000349) 
            (-0.249938 0.500000 0.000464) 
            (-0.249903 0.500000 0.000579) 
            (-0.249861 0.500000 0.000694) 
            (-0.249810 0.500000 0.000809) 
            (-0.249752 0.500000 0.000922) 
            (-0.249686 0.500000 0.001036) 
            (-0.249613 0.500000 0.001149) 
            (-0.249531 0.500000 0.001262) 
            (-0.249442 0.500000 0.001374) 
            (-0.249346 0.500000 0.001486) 
            (-0.249241 0.500000 0.001597) 
            (-0.249129 0.500000 0.001708) 
            (-0.249009 0.500000 0.001818) 
            (-0.248882 0.500000 0.001929) 
            (-0.248747 0.500000 0.002038) 
            (-0.248604 0.500000 0.002147) 
            (-0.248453 0.500000 0.002256) 
            (-0.248295 0.500000 0.002364) 
            (-0.248129 0.500000 0.002472) 
            (-0.247956 0.500000 0.002579) 
            (-0.247775 0.500000 0.002686) 
            (-0.247586 0.500000 0.002792) 
            (-0.247390 0.500000 0.002898) 
            (-0.247186 0.500000 0.003004) 
            (-0.246975 0.500000 0.003109) 
            (-0.246756 0.500000 0.003213) 
            (-0.246529 0.500000 0.003317) 
            (-0.246295 0.500000 0.003420) 
            (-0.246053 0.500000 0.003523) 
            (-0.245804 0.500000 0.003625) 
            (-0.245548 0.500000 0.003727) 
            (-0.245284 0.500000 0.003828) 
            (-0.245012 0.500000 0.003929) 
            (-0.244733 0.500000 0.004029) 
            (-0.244447 0.500000 0.004128) 
            (-0.244153 0.500000 0.004227) 
            (-0.243852 0.500000 0.004325) 
            (-0.243543 0.500000 0.004423) 
            (-0.243227 0.500000 0.004520) 
            (-0.242904 0.500000 0.004617) 
            (-0.242573 0.500000 0.004713) 
            (-0.242236 0.500000 0.004808) 
            (-0.241890 0.500000 0.004903) 
            (-0.241538 0.500000 0.004997) 
            (-0.241179 0.500000 0.005090) 
            (-0.240812 0.500000 0.005183) 
            (-0.240438 0.500000 0.005275) 
            (-0.240057 0.500000 0.005366) 
            (-0.239668 0.500000 0.005457) 
            (-0.239273 0.500000 0.005547) 
            (-0.238871 0.500000 0.005636) 
            (-0.238461 0.500000 0.005725) 
            (-0.238045 0.500000 0.005813) 
            (-0.237621 0.500000 0.005900) 
            (-0.237191 0.500000 0.005986) 
            (-0.236753 0.500000 0.006072) 
            (-0.236309 0.500000 0.006157) 
            (-0.235857 0.500000 0.006241) 
            (-0.235399 0.500000 0.006325) 
            (-0.234934 0.500000 0.006408) 
            (-0.234462 0.500000 0.006489) 
            (-0.233984 0.500000 0.006571) 
            (-0.233498 0.500000 0.006651) 
            (-0.233006 0.500000 0.006731) 
            (-0.232507 0.500000 0.006809) 
            (-0.232002 0.500000 0.006887) 
            (-0.231490 0.500000 0.006964) 
            (-0.230971 0.500000 0.007041) 
            (-0.230446 0.500000 0.007116) 
            (-0.229914 0.500000 0.007191) 
            (-0.229376 0.500000 0.007264) 
            (-0.228831 0.500000 0.007337) 
            (-0.228280 0.500000 0.007409) 
            (-0.227722 0.500000 0.007480) 
            (-0.227158 0.500000 0.007551) 
            (-0.226588 0.500000 0.007620) 
            (-0.226011 0.500000 0.007688) 
            (-0.225428 0.500000 0.007756) 
            (-0.224839 0.500000 0.007823) 
            (-0.224244 0.500000 0.007888) 
            (-0.223643 0.500000 0.007953) 
            (-0.223035 0.500000 0.008017) 
            (-0.222421 0.500000 0.008080) 
            (-0.221802 0.500000 0.008142) 
            (-0.221176 0.500000 0.008203) 
            (-0.220544 0.500000 0.008263) 
            (-0.219907 0.500000 0.008322) 
            (-0.219263 0.500000 0.008380) 
            (-0.218614 0.500000 0.008437) 
            (-0.217959 0.500000 0.008494) 
            (-0.217298 0.500000 0.008549) 
            (-0.216631 0.500000 0.008603) 
            (-0.215959 0.500000 0.008656) 
            (-0.215281 0.500000 0.008709) 
            (-0.214598 0.500000 0.008760) 
            (-0.213909 0.500000 0.008810) 
            (-0.213214 0.500000 0.008859) 
            (-0.212514 0.500000 0.008908) 
            (-0.211809 0.500000 0.008955) 
            (-0.211098 0.500000 0.009001) 
            (-0.210382 0.500000 0.009046) 
            (-0.209660 0.500000 0.009090) 
            (-0.208933 0.500000 0.009133) 
            (-0.208202 0.500000 0.009175) 
            (-0.207464 0.500000 0.009216) 
            (-0.206722 0.500000 0.009256) 
            (-0.205975 0.500000 0.009295) 
            (-0.205223 0.500000 0.009333) 
            (-0.204465 0.500000 0.009370) 
            (-0.203703 0.500000 0.009406) 
            (-0.202936 0.500000 0.009441) 
            (-0.202164 0.500000 0.009474) 
            (-0.201388 0.500000 0.009507) 
            (-0.200606 0.500000 0.009539) 
            (-0.199820 0.500000 0.009569) 
            (-0.199029 0.500000 0.009599) 
            (-0.198234 0.500000 0.009627) 
            (-0.197434 0.500000 0.009654) 
            (-0.196630 0.500000 0.009681) 
            (-0.195821 0.500000 0.009706) 
            (-0.195008 0.500000 0.009730) 
            (-0.194190 0.500000 0.009754) 
            (-0.193369 0.500000 0.009776) 
            (-0.192542 0.500000 0.009797) 
            (-0.191712 0.500000 0.009817) 
            (-0.190878 0.500000 0.009836) 
            (-0.190039 0.500000 0.009854) 
            (-0.189197 0.500000 0.009871) 
            (-0.188350 0.500000 0.009886) 
            (-0.187500 0.500000 0.009901) 
            (-0.186646 0.500000 0.009915) 
            (-0.185788 0.500000 0.009928) 
            (-0.184926 0.500000 0.009939) 
            (-0.184060 0.500000 0.009950) 
            (-0.183191 0.500000 0.009960) 
            (-0.182318 0.500000 0.009968) 
            (-0.181442 0.500000 0.009976) 
            (-0.180562 0.500000 0.009983) 
            (-0.179678 0.500000 0.009988) 
            (-0.178792 0.500000 0.009993) 
            (-0.177902 0.500000 0.009996) 
            (-0.177008 0.500000 0.009999) 
            (-0.176112 0.500000 0.010001) 
        ) 
    spline 5 7 
        ( 
            (-0.174309 0.500000 0.010001)
            (-0.173403 0.500000 0.009999)
            (-0.172494 0.500000 0.009997)
            (-0.171582 0.500000 0.009994)
            (-0.170668 0.500000 0.009989)
            (-0.169750 0.500000 0.009984)
            (-0.168830 0.500000 0.009978)
            (-0.167907 0.500000 0.009971)
            (-0.166981 0.500000 0.009963)
            (-0.166053 0.500000 0.009954)
            (-0.165122 0.500000 0.009944)
            (-0.164188 0.500000 0.009933)
            (-0.163253 0.500000 0.009921)
            (-0.162314 0.500000 0.009909)
            (-0.161374 0.500000 0.009895)
            (-0.160431 0.500000 0.009881)
            (-0.159486 0.500000 0.009865)
            (-0.158539 0.500000 0.009849)
            (-0.157590 0.500000 0.009832)
            (-0.156639 0.500000 0.009814)
            (-0.155686 0.500000 0.009795)
            (-0.154731 0.500000 0.009775)
            (-0.153774 0.500000 0.009755)
            (-0.152815 0.500000 0.009734)
            (-0.151855 0.500000 0.009711)
            (-0.150893 0.500000 0.009688)
            (-0.149929 0.500000 0.009665)
            (-0.148964 0.500000 0.009640)
            (-0.147997 0.500000 0.009615)
            (-0.147029 0.500000 0.009588)
            (-0.146060 0.500000 0.009561)
            (-0.145089 0.500000 0.009534)
            (-0.144117 0.500000 0.009505)
            (-0.143144 0.500000 0.009476)
            (-0.142169 0.500000 0.009446)
            (-0.141194 0.500000 0.009415)
            (-0.140217 0.500000 0.009384)
            (-0.139240 0.500000 0.009352)
            (-0.138262 0.500000 0.009319)
            (-0.137283 0.500000 0.009285)
            (-0.136303 0.500000 0.009251)
            (-0.135322 0.500000 0.009216)
            (-0.134341 0.500000 0.009180)
            (-0.133360 0.500000 0.009144)
            (-0.132377 0.500000 0.009107)
            (-0.131395 0.500000 0.009070)
            (-0.130411 0.500000 0.009031)
            (-0.129428 0.500000 0.008992)
            (-0.128444 0.500000 0.008953)
            (-0.127460 0.500000 0.008913)
            (-0.126476 0.500000 0.008872)
            (-0.125492 0.500000 0.008831)
            (-0.124508 0.500000 0.008789)
            (-0.123524 0.500000 0.008747)
            (-0.122540 0.500000 0.008704)
            (-0.121556 0.500000 0.008660)
            (-0.120572 0.500000 0.008616)
            (-0.119589 0.500000 0.008572)
            (-0.118605 0.500000 0.008527)
            (-0.117623 0.500000 0.008481)
            (-0.116640 0.500000 0.008435)
            (-0.115659 0.500000 0.008388)
            (-0.114678 0.500000 0.008341)
            (-0.113697 0.500000 0.008294)
            (-0.112717 0.500000 0.008246)
            (-0.111738 0.500000 0.008197)
            (-0.110760 0.500000 0.008148)
            (-0.109783 0.500000 0.008099)
            (-0.108806 0.500000 0.008049)
            (-0.107831 0.500000 0.007999)
            (-0.106856 0.500000 0.007948)
            (-0.105883 0.500000 0.007897)
            (-0.104911 0.500000 0.007845)
            (-0.103940 0.500000 0.007793)
            (-0.102971 0.500000 0.007741)
            (-0.102003 0.500000 0.007689)
            (-0.101036 0.500000 0.007636)
            (-0.100071 0.500000 0.007582)
            (-0.099107 0.500000 0.007529)
            (-0.098145 0.500000 0.007475)
            (-0.097185 0.500000 0.007420)
            (-0.096226 0.500000 0.007366)
            (-0.095269 0.500000 0.007311)
            (-0.094314 0.500000 0.007256)
            (-0.093361 0.500000 0.007200)
            (-0.092410 0.500000 0.007144)
            (-0.091461 0.500000 0.007088)
            (-0.090514 0.500000 0.007032)
            (-0.089569 0.500000 0.006975)
            (-0.088626 0.500000 0.006918)
            (-0.087686 0.500000 0.006861)
            (-0.086747 0.500000 0.006804)
            (-0.085812 0.500000 0.006746)
            (-0.084878 0.500000 0.006689)
            (-0.083947 0.500000 0.006631)
            (-0.083019 0.500000 0.006573)
            (-0.082093 0.500000 0.006514)
            (-0.081170 0.500000 0.006456)
            (-0.080250 0.500000 0.006397)
            (-0.079332 0.500000 0.006338)
            (-0.078418 0.500000 0.006279)
            (-0.077506 0.500000 0.006220)
            (-0.076597 0.500000 0.006161)
            (-0.075691 0.500000 0.006102)
            (-0.074788 0.500000 0.006042)
            (-0.073888 0.500000 0.005982)
            (-0.072992 0.500000 0.005923)
            (-0.072098 0.500000 0.005863)
            (-0.071208 0.500000 0.005803)
            (-0.070322 0.500000 0.005743)
            (-0.069438 0.500000 0.005683)
            (-0.068558 0.500000 0.005623)
            (-0.067682 0.500000 0.005563)
            (-0.066809 0.500000 0.005502)
            (-0.065940 0.500000 0.005442)
            (-0.065074 0.500000 0.005382)
            (-0.064212 0.500000 0.005321)
            (-0.063354 0.500000 0.005261)
            (-0.062500 0.500000 0.005201)
            (-0.061650 0.500000 0.005140)
            (-0.060803 0.500000 0.005080)
            (-0.059961 0.500000 0.005020)
            (-0.059122 0.500000 0.004959)
            (-0.058288 0.500000 0.004899)
            (-0.057458 0.500000 0.004839)
            (-0.056631 0.500000 0.004779)
            (-0.055810 0.500000 0.004718)
            (-0.054992 0.500000 0.004658)
            (-0.054179 0.500000 0.004598)
            (-0.053370 0.500000 0.004538)
            (-0.052566 0.500000 0.004478)
            (-0.051766 0.500000 0.004419)
            (-0.050971 0.500000 0.004359)
            (-0.050180 0.500000 0.004299)
            (-0.049394 0.500000 0.004240)
            (-0.048612 0.500000 0.004181)
            (-0.047836 0.500000 0.004121)
            (-0.047064 0.500000 0.004062)
            (-0.046297 0.500000 0.004003)
            (-0.045535 0.500000 0.003945)
            (-0.044777 0.500000 0.003886)
            (-0.044025 0.500000 0.003828)
            (-0.043278 0.500000 0.003769)
            (-0.042536 0.500000 0.003711)
            (-0.041798 0.500000 0.003653)
            (-0.041067 0.500000 0.003596)
            (-0.040340 0.500000 0.003538)
            (-0.039618 0.500000 0.003481)
            (-0.038902 0.500000 0.003424)
            (-0.038191 0.500000 0.003367)
            (-0.037486 0.500000 0.003310)
            (-0.036786 0.500000 0.003254)
            (-0.036091 0.500000 0.003198)
            (-0.035402 0.500000 0.003142)
            (-0.034719 0.500000 0.003086)
            (-0.034041 0.500000 0.003031)
            (-0.033369 0.500000 0.002976)
            (-0.032702 0.500000 0.002921)
            (-0.032041 0.500000 0.002867)
            (-0.031386 0.500000 0.002812)
            (-0.030737 0.500000 0.002759)
            (-0.030093 0.500000 0.002705)
            (-0.029456 0.500000 0.002652)
            (-0.028824 0.500000 0.002599)
            (-0.028198 0.500000 0.002546)
            (-0.027579 0.500000 0.002494)
            (-0.026965 0.500000 0.002442)
            (-0.026357 0.500000 0.002391)
            (-0.025756 0.500000 0.002340)
            (-0.025161 0.500000 0.002289)
            (-0.024572 0.500000 0.002238)
            (-0.023989 0.500000 0.002188)
            (-0.023412 0.500000 0.002139)
            (-0.022842 0.500000 0.002090)
            (-0.022278 0.500000 0.002041)
            (-0.021720 0.500000 0.001993)
            (-0.021169 0.500000 0.001945)
            (-0.020624 0.500000 0.001897)
            (-0.020086 0.500000 0.001850)
            (-0.019554 0.500000 0.001803)
            (-0.019029 0.500000 0.001757)
            (-0.018510 0.500000 0.001712)
            (-0.017998 0.500000 0.001666)
            (-0.017493 0.500000 0.001622)
            (-0.016994 0.500000 0.001577)
            (-0.016502 0.500000 0.001533)
            (-0.016016 0.500000 0.001490)
            (-0.015538 0.500000 0.001447)
            (-0.015066 0.500000 0.001405)
            (-0.014601 0.500000 0.001363)
            (-0.014143 0.500000 0.001322)
            (-0.013691 0.500000 0.001281)
            (-0.013247 0.500000 0.001241)
            (-0.012809 0.500000 0.001201)
            (-0.012379 0.500000 0.001162)
            (-0.011955 0.500000 0.001124)
            (-0.011539 0.500000 0.001086)
            (-0.011129 0.500000 0.001048)
            (-0.010727 0.500000 0.001011)
            (-0.010332 0.500000 0.000975)
            (-0.009943 0.500000 0.000939)
            (-0.009562 0.500000 0.000904)
            (-0.009188 0.500000 0.000870)
            (-0.008821 0.500000 0.000836)
            (-0.008462 0.500000 0.000802)
            (-0.008110 0.500000 0.000770)
            (-0.007764 0.500000 0.000738)
            (-0.007427 0.500000 0.000706)
            (-0.007096 0.500000 0.000675)
            (-0.006773 0.500000 0.000645)
            (-0.006457 0.500000 0.000615)
            (-0.006148 0.500000 0.000586)
            (-0.005847 0.500000 0.000558)
            (-0.005553 0.500000 0.000530)
            (-0.005267 0.500000 0.000503)
            (-0.004988 0.500000 0.000477)
            (-0.004716 0.500000 0.000451)
            (-0.004452 0.500000 0.000427)
            (-0.004196 0.500000 0.000402)
            (-0.003947 0.500000 0.000379)
            (-0.003705 0.500000 0.000356)
            (-0.003471 0.500000 0.000333)
            (-0.003244 0.500000 0.000312)
            (-0.003025 0.500000 0.000291)
            (-0.002814 0.500000 0.000271)
            (-0.002610 0.500000 0.000251)
            (-0.002414 0.500000 0.000232)
            (-0.002225 0.500000 0.000214)
            (-0.002044 0.500000 0.000197)
            (-0.001871 0.500000 0.000180)
            (-0.001705 0.500000 0.000164)
            (-0.001547 0.500000 0.000149)
            (-0.001396 0.500000 0.000135)
            (-0.001253 0.500000 0.000121)
            (-0.001118 0.500000 0.000108)
            (-0.000991 0.500000 0.000096)
            (-0.000871 0.500000 0.000084)
            (-0.000759 0.500000 0.000073)
            (-0.000654 0.500000 0.000063)
            (-0.000558 0.500000 0.000054)
            (-0.000469 0.500000 0.000045)
            (-0.000387 0.500000 0.000037)
            (-0.000314 0.500000 0.000030)
            (-0.000248 0.500000 0.000024)
            (-0.000190 0.500000 0.000018)
            (-0.000139 0.500000 0.000014)
            (-0.000097 0.500000 0.000009)
            (-0.000062 0.500000 0.000006)
            (-0.000035 0.500000 0.000003)
            (-0.000015 0.500000 0.000002)
            (-0.000004 0.500000 0.000000)
        ) 
    spline 4 6 
        ( 
            (-0.249996 0.500000 -0.000117)
            (-0.249985 0.500000 -0.000233)
            (-0.249965 0.500000 -0.000349)
            (-0.249938 0.500000 -0.000464)
            (-0.249903 0.500000 -0.000579)
            (-0.249861 0.500000 -0.000694)
            (-0.249810 0.500000 -0.000809)
            (-0.249752 0.500000 -0.000922)
            (-0.249686 0.500000 -0.001036)
            (-0.249613 0.500000 -0.001149)
            (-0.249531 0.500000 -0.001262)
            (-0.249442 0.500000 -0.001374)
            (-0.249346 0.500000 -0.001486)
            (-0.249241 0.500000 -0.001597)
            (-0.249129 0.500000 -0.001708)
            (-0.249009 0.500000 -0.001818)
            (-0.248882 0.500000 -0.001929)
            (-0.248747 0.500000 -0.002038)
            (-0.248604 0.500000 -0.002147)
            (-0.248453 0.500000 -0.002256)
            (-0.248295 0.500000 -0.002364)
            (-0.248129 0.500000 -0.002472)
            (-0.247956 0.500000 -0.002579)
            (-0.247775 0.500000 -0.002686)
            (-0.247586 0.500000 -0.002792)
            (-0.247390 0.500000 -0.002898)
            (-0.247186 0.500000 -0.003004)
            (-0.246975 0.500000 -0.003109)
            (-0.246756 0.500000 -0.003213)
            (-0.246529 0.500000 -0.003317)
            (-0.246295 0.500000 -0.003420)
            (-0.246053 0.500000 -0.003523)
            (-0.245804 0.500000 -0.003625)
            (-0.245548 0.500000 -0.003727)
            (-0.245284 0.500000 -0.003828)
            (-0.245012 0.500000 -0.003929)
            (-0.244733 0.500000 -0.004029)
            (-0.244447 0.500000 -0.004128)
            (-0.244153 0.500000 -0.004227)
            (-0.243852 0.500000 -0.004325)
            (-0.243543 0.500000 -0.004423)
            (-0.243227 0.500000 -0.004520)
            (-0.242904 0.500000 -0.004617)
            (-0.242573 0.500000 -0.004713)
            (-0.242236 0.500000 -0.004808)
            (-0.241890 0.500000 -0.004903)
            (-0.241538 0.500000 -0.004997)
            (-0.241179 0.500000 -0.005090)
            (-0.240812 0.500000 -0.005183)
            (-0.240438 0.500000 -0.005275)
            (-0.240057 0.500000 -0.005366)
            (-0.239668 0.500000 -0.005457)
            (-0.239273 0.500000 -0.005547)
            (-0.238871 0.500000 -0.005636)
            (-0.238461 0.500000 -0.005725)
            (-0.238045 0.500000 -0.005813)
            (-0.237621 0.500000 -0.005900)
            (-0.237191 0.500000 -0.005986)
            (-0.236753 0.500000 -0.006072)
            (-0.236309 0.500000 -0.006157)
            (-0.235857 0.500000 -0.006241)
            (-0.235399 0.500000 -0.006325)
            (-0.234934 0.500000 -0.006408)
            (-0.234462 0.500000 -0.006489)
            (-0.233984 0.500000 -0.006571)
            (-0.233498 0.500000 -0.006651)
            (-0.233006 0.500000 -0.006731)
            (-0.232507 0.500000 -0.006809)
            (-0.232002 0.500000 -0.006887)
            (-0.231490 0.500000 -0.006964)
            (-0.230971 0.500000 -0.007041)
            (-0.230446 0.500000 -0.007116)
            (-0.229914 0.500000 -0.007191)
            (-0.229376 0.500000 -0.007264)
            (-0.228831 0.500000 -0.007337)
            (-0.228280 0.500000 -0.007409)
            (-0.227722 0.500000 -0.007480)
            (-0.227158 0.500000 -0.007551)
            (-0.226588 0.500000 -0.007620)
            (-0.226011 0.500000 -0.007688)
            (-0.225428 0.500000 -0.007756)
            (-0.224839 0.500000 -0.007823)
            (-0.224244 0.500000 -0.007888)
            (-0.223643 0.500000 -0.007953)
            (-0.223035 0.500000 -0.008017)
            (-0.222421 0.500000 -0.008080)
            (-0.221802 0.500000 -0.008142)
            (-0.221176 0.500000 -0.008203)
            (-0.220544 0.500000 -0.008263)
            (-0.219907 0.500000 -0.008322)
            (-0.219263 0.500000 -0.008380)
            (-0.218614 0.500000 -0.008437)
            (-0.217959 0.500000 -0.008494)
            (-0.217298 0.500000 -0.008549)
            (-0.216631 0.500000 -0.008603)
            (-0.215959 0.500000 -0.008656)
            (-0.215281 0.500000 -0.008709)
            (-0.214598 0.500000 -0.008760)
            (-0.213909 0.500000 -0.008810)
            (-0.213214 0.500000 -0.008859)
            (-0.212514 0.500000 -0.008908)
            (-0.211809 0.500000 -0.008955)
            (-0.211098 0.500000 -0.009001)
            (-0.210382 0.500000 -0.009046)
            (-0.209660 0.500000 -0.009090)
            (-0.208933 0.500000 -0.009133)
            (-0.208202 0.500000 -0.009175)
            (-0.207464 0.500000 -0.009216)
            (-0.206722 0.500000 -0.009256)
            (-0.205975 0.500000 -0.009295)
            (-0.205223 0.500000 -0.009333)
            (-0.204465 0.500000 -0.009370)
            (-0.203703 0.500000 -0.009406)
            (-0.202936 0.500000 -0.009441)
            (-0.202164 0.500000 -0.009474)
            (-0.201388 0.500000 -0.009507)
            (-0.200606 0.500000 -0.009539)
            (-0.199820 0.500000 -0.009569)
            (-0.199029 0.500000 -0.009599)
            (-0.198234 0.500000 -0.009627)
            (-0.197434 0.500000 -0.009654)
            (-0.196630 0.500000 -0.009681)
            (-0.195821 0.500000 -0.009706)
            (-0.195008 0.500000 -0.009730)
            (-0.194190 0.500000 -0.009754)
            (-0.193369 0.500000 -0.009776)
            (-0.192542 0.500000 -0.009797)
            (-0.191712 0.500000 -0.009817)
            (-0.190878 0.500000 -0.009836)
            (-0.190039 0.500000 -0.009854)
            (-0.189197 0.500000 -0.009871)
            (-0.188350 0.500000 -0.009886)
            (-0.187500 0.500000 -0.009901)
            (-0.186646 0.500000 -0.009915)
            (-0.185788 0.500000 -0.009928)
            (-0.184926 0.500000 -0.009939)
            (-0.184060 0.500000 -0.009950)
            (-0.183191 0.500000 -0.009960)
            (-0.182318 0.500000 -0.009968)
            (-0.181442 0.500000 -0.009976)
            (-0.180562 0.500000 -0.009983)
            (-0.179678 0.500000 -0.009988)
            (-0.178792 0.500000 -0.009993)
            (-0.177902 0.500000 -0.009996)
            (-0.177008 0.500000 -0.009999)
            (-0.176112 0.500000 -0.010001)
        ) 
    spline 6 7 
        ( 
            (-0.174309 0.500000 -0.010001)
            (-0.173403 0.500000 -0.009999)
            (-0.172494 0.500000 -0.009997)
            (-0.171582 0.500000 -0.009994)
            (-0.170668 0.500000 -0.009989)
            (-0.169750 0.500000 -0.009984)
            (-0.168830 0.500000 -0.009978)
            (-0.167907 0.500000 -0.009971)
            (-0.166981 0.500000 -0.009963)
            (-0.166053 0.500000 -0.009954)
            (-0.165122 0.500000 -0.009944)
            (-0.164188 0.500000 -0.009933)
            (-0.163253 0.500000 -0.009921)
            (-0.162314 0.500000 -0.009909)
            (-0.161374 0.500000 -0.009895)
            (-0.160431 0.500000 -0.009881)
            (-0.159486 0.500000 -0.009865)
            (-0.158539 0.500000 -0.009849)
            (-0.157590 0.500000 -0.009832)
            (-0.156639 0.500000 -0.009814)
            (-0.155686 0.500000 -0.009795)
            (-0.154731 0.500000 -0.009775)
            (-0.153774 0.500000 -0.009755)
            (-0.152815 0.500000 -0.009734)
            (-0.151855 0.500000 -0.009711)
            (-0.150893 0.500000 -0.009688)
            (-0.149929 0.500000 -0.009665)
            (-0.148964 0.500000 -0.009640)
            (-0.147997 0.500000 -0.009615)
            (-0.147029 0.500000 -0.009588)
            (-0.146060 0.500000 -0.009561)
            (-0.145089 0.500000 -0.009534)
            (-0.144117 0.500000 -0.009505)
            (-0.143144 0.500000 -0.009476)
            (-0.142169 0.500000 -0.009446)
            (-0.141194 0.500000 -0.009415)
            (-0.140217 0.500000 -0.009384)
            (-0.139240 0.500000 -0.009352)
            (-0.138262 0.500000 -0.009319)
            (-0.137283 0.500000 -0.009285)
            (-0.136303 0.500000 -0.009251)
            (-0.135322 0.500000 -0.009216)
            (-0.134341 0.500000 -0.009180)
            (-0.133360 0.500000 -0.009144)
            (-0.132377 0.500000 -0.009107)
            (-0.131395 0.500000 -0.009070)
            (-0.130411 0.500000 -0.009031)
            (-0.129428 0.500000 -0.008992)
            (-0.128444 0.500000 -0.008953)
            (-0.127460 0.500000 -0.008913)
            (-0.126476 0.500000 -0.008872)
            (-0.125492 0.500000 -0.008831)
            (-0.124508 0.500000 -0.008789)
            (-0.123524 0.500000 -0.008747)
            (-0.122540 0.500000 -0.008704)
            (-0.121556 0.500000 -0.008660)
            (-0.120572 0.500000 -0.008616)
            (-0.119589 0.500000 -0.008572)
            (-0.118605 0.500000 -0.008527)
            (-0.117623 0.500000 -0.008481)
            (-0.116640 0.500000 -0.008435)
            (-0.115659 0.500000 -0.008388)
            (-0.114678 0.500000 -0.008341)
            (-0.113697 0.500000 -0.008294)
            (-0.112717 0.500000 -0.008246)
            (-0.111738 0.500000 -0.008197)
            (-0.110760 0.500000 -0.008148)
            (-0.109783 0.500000 -0.008099)
            (-0.108806 0.500000 -0.008049)
            (-0.107831 0.500000 -0.007999)
            (-0.106856 0.500000 -0.007948)
            (-0.105883 0.500000 -0.007897)
            (-0.104911 0.500000 -0.007845)
            (-0.103940 0.500000 -0.007793)
            (-0.102971 0.500000 -0.007741)
            (-0.102003 0.500000 -0.007689)
            (-0.101036 0.500000 -0.007636)
            (-0.100071 0.500000 -0.007582)
            (-0.099107 0.500000 -0.007529)
            (-0.098145 0.500000 -0.007475)
            (-0.097185 0.500000 -0.007420)
            (-0.096226 0.500000 -0.007366)
            (-0.095269 0.500000 -0.007311)
            (-0.094314 0.500000 -0.007256)
            (-0.093361 0.500000 -0.007200)
            (-0.092410 0.500000 -0.007144)
            (-0.091461 0.500000 -0.007088)
            (-0.090514 0.500000 -0.007032)
            (-0.089569 0.500000 -0.006975)
            (-0.088626 0.500000 -0.006918)
            (-0.087686 0.500000 -0.006861)
            (-0.086747 0.500000 -0.006804)
            (-0.085812 0.500000 -0.006746)
            (-0.084878 0.500000 -0.006689)
            (-0.083947 0.500000 -0.006631)
            (-0.083019 0.500000 -0.006573)
            (-0.082093 0.500000 -0.006514)